<?xml version="1.0" encoding="ISO-8859-1"?>
<febio_spec version="4.0">
	<Module type="solid"/>
	<Globals>
		<Constants>
			<T>0</T>
			<P>0</P>
			<R>8.31446</R>
			<Fc>96485.3</Fc>
		</Constants>
	</Globals>
	<Material>
		<material id="1" name="Material1" type="Mooney-Rivlin">
			<density>1</density>
			<k>4000</k>
			<pressure_model>default</pressure_model>
			<c1>3.51</c1>
			<c2>0.93</c2>
		</material>
	</Material>
	<Mesh>
		<Nodes name="Malla">
			<node id="1">0,0,0</node>
			<node id="2">7.5,0,0</node>
			<node id="3">7.5,7.5,0</node>
			<node id="4">0,7.5,0</node>
			<node id="5">8.96446609,11.0355339,0</node>
			<node id="6">0,20,0</node>
			<node id="7">12.5,12.5,0</node>
			<node id="8">12.5,20,0</node>
			<node id="9">20,12.5,0</node>
			<node id="10">20,20,0</node>
			<node id="11">0,0,2</node>
			<node id="12">7.5,0,2</node>
			<node id="13">7.5,7.5,2</node>
			<node id="14">0,7.5,2</node>
			<node id="15">12.5,12.5,2</node>
			<node id="16">20,12.5,2</node>
			<node id="17">20,20,2</node>
			<node id="18">12.5,20,2</node>
			<node id="19">8.96446609,11.0355339,2</node>
			<node id="20">0,20,2</node>
<!-- ... 4260 like lines cut -->
		</Nodes>
		<Elements type="hex8" name="Part1">
			<elem id="1">1,21,609,92,11,315,2445,386</elem>
			<elem id="2">92,609,610,91,386,2445,2446,385</elem>
			<elem id="3">91,610,611,90,385,2446,2447,384</elem>
			<elem id="4">90,611,612,89,384,2447,2448,383</elem>
			<elem id="5">89,612,613,88,383,2448,2449,382</elem>
			<elem id="6">88,613,614,87,382,2449,2450,381</elem>
			<elem id="7">87,614,615,86,381,2450,2451,380</elem>
			<elem id="8">86,615,616,85,380,2451,2452,379</elem>
			<elem id="9">85,616,617,84,379,2452,2453,378</elem>
			<elem id="10">84,617,618,83,378,2453,2454,377</elem>
			<elem id="11">83,618,619,82,377,2454,2455,376</elem>
			<elem id="12">82,619,620,81,376,2455,2456,375</elem>
			<elem id="13">81,620,621,80,375,2456,2457,374</elem>
			<elem id="14">80,621,622,79,374,2457,2458,373</elem>
			<elem id="15">79,622,623,78,373,2458,2459,372</elem>
			<elem id="16">78,623,624,77,372,2459,2460,371</elem>
			<elem id="17">77,624,625,76,371,2460,2461,370</elem>
			<elem id="18">76,625,626,75,370,2461,2462,369</elem>
			<elem id="19">75,626,74,4,369,2462,368,14</elem>
			<elem id="20">21,22,627,609,315,316,2463,2445</elem>
<!-- ... 341 like lines cut -->
		</Elements>
		<Elements type="hex8" name="Part2">
			<elem id="362">7,261,933,210,15,387,2769,458</elem>
			<elem id="363">210,933,934,211,458,2769,2770,457</elem>
			<elem id="364">211,934,935,212,457,2770,2771,456</elem>
			<elem id="365">212,935,936,213,456,2771,2772,455</elem>
			<elem id="366">213,936,937,214,455,2772,2773,454</elem>
			<elem id="367">214,937,938,215,454,2773,2774,453</elem>
			<elem id="368">215,938,939,216,453,2774,2775,452</elem>
			<elem id="369">216,939,940,217,452,2775,2776,451</elem>
			<elem id="370">217,940,941,218,451,2776,2777,450</elem>
			<elem id="371">218,941,942,219,450,2777,2778,449</elem>
			<elem id="372">219,942,943,220,449,2778,2779,448</elem>
			<elem id="373">220,943,944,221,448,2779,2780,447</elem>
			<elem id="374">221,944,945,222,447,2780,2781,446</elem>
			<elem id="375">222,945,946,223,446,2781,2782,445</elem>
			<elem id="376">223,946,947,224,445,2782,2783,444</elem>
			<elem id="377">224,947,948,225,444,2783,2784,443</elem>
			<elem id="378">225,948,949,226,443,2784,2785,442</elem>
			<elem id="379">226,949,950,227,442,2785,2786,441</elem>
			<elem id="380">227,950,314,8,441,2786,440,18</elem>
			<elem id="381">261,262,951,933,387,388,2787,2769</elem>
<!-- ... 341 like lines cut -->
		</Elements>
		<Elements type="hex8" name="Part3">
			<elem id="723">3,93,1257,57,13,459,3093,351</elem>
			<elem id="724">57,1257,1258,58,351,3093,3094,352</elem>
			<elem id="725">58,1258,1259,59,352,3094,3095,353</elem>
			<elem id="726">59,1259,1260,60,353,3095,3096,354</elem>
			<elem id="727">60,1260,1261,61,354,3096,3097,355</elem>
			<elem id="728">61,1261,1262,62,355,3097,3098,356</elem>
			<elem id="729">62,1262,1263,63,356,3098,3099,357</elem>
			<elem id="730">63,1263,1264,64,357,3099,3100,358</elem>
			<elem id="731">64,1264,1265,65,358,3100,3101,359</elem>
			<elem id="732">65,1265,1266,66,359,3101,3102,360</elem>
			<elem id="733">66,1266,1267,67,360,3102,3103,361</elem>
			<elem id="734">67,1267,1268,68,361,3103,3104,362</elem>
			<elem id="735">68,1268,1269,69,362,3104,3105,363</elem>
			<elem id="736">69,1269,1270,70,363,3105,3106,364</elem>
			<elem id="737">70,1270,1271,71,364,3106,3107,365</elem>
			<elem id="738">71,1271,1272,72,365,3107,3108,366</elem>
			<elem id="739">72,1272,1273,73,366,3108,3109,367</elem>
			<elem id="740">73,1273,1274,74,367,3109,3110,368</elem>
			<elem id="741">74,1274,176,4,368,3110,542,14</elem>
			<elem id="742">93,94,1275,1257,459,460,3111,3093</elem>
<!-- ... 626 like lines cut -->
		</Elements>
		<Elements type="hex8" name="Part4">
			<elem id="1369">5,177,1851,126,19,543,3687,492</elem>
			<elem id="1370">126,1851,1852,127,492,3687,3688,493</elem>
			<elem id="1371">127,1852,1853,128,493,3688,3689,494</elem>
			<elem id="1372">128,1853,1854,129,494,3689,3690,495</elem>
			<elem id="1373">129,1854,1855,130,495,3690,3691,496</elem>
			<elem id="1374">130,1855,1856,131,496,3691,3692,497</elem>
			<elem id="1375">131,1856,1857,132,497,3692,3693,498</elem>
			<elem id="1376">132,1857,1858,133,498,3693,3694,499</elem>
			<elem id="1377">133,1858,1859,134,499,3694,3695,500</elem>
			<elem id="1378">134,1859,1860,135,500,3695,3696,501</elem>
			<elem id="1379">135,1860,1861,136,501,3696,3697,502</elem>
			<elem id="1380">136,1861,1862,137,502,3697,3698,503</elem>
			<elem id="1381">137,1862,1863,138,503,3698,3699,504</elem>
			<elem id="1382">138,1863,1864,139,504,3699,3700,505</elem>
			<elem id="1383">139,1864,1865,140,505,3700,3701,506</elem>
			<elem id="1384">140,1865,1866,141,506,3701,3702,507</elem>
			<elem id="1385">141,1866,1867,142,507,3702,3703,508</elem>
			<elem id="1386">142,1867,1868,143,508,3703,3704,509</elem>
			<elem id="1387">143,1868,260,6,509,3704,608,20</elem>
			<elem id="1388">177,178,1869,1851,543,544,3705,3687</elem>
<!-- ... 626 like lines cut -->
		</Elements>
		<Surface name="ZeroDisplacement1">
			<quad4 id="1">92,609,21,1</quad4>
			<quad4 id="2">91,610,609,92</quad4>
			<quad4 id="3">90,611,610,91</quad4>
			<quad4 id="4">89,612,611,90</quad4>
			<quad4 id="5">88,613,612,89</quad4>
			<quad4 id="6">87,614,613,88</quad4>
			<quad4 id="7">86,615,614,87</quad4>
			<quad4 id="8">85,616,615,86</quad4>
			<quad4 id="9">84,617,616,85</quad4>
			<quad4 id="10">83,618,617,84</quad4>
			<quad4 id="11">82,619,618,83</quad4>
			<quad4 id="12">81,620,619,82</quad4>
			<quad4 id="13">80,621,620,81</quad4>
			<quad4 id="14">79,622,621,80</quad4>
			<quad4 id="15">78,623,622,79</quad4>
			<quad4 id="16">77,624,623,78</quad4>
			<quad4 id="17">76,625,624,77</quad4>
			<quad4 id="18">75,626,625,76</quad4>
			<quad4 id="19">4,74,626,75</quad4>
			<quad4 id="20">609,627,22,21</quad4>
<!-- ... 1994 like lines cut -->
		</Surface>
		<Surface name="PrescribedDisplacement2">
			<quad4 id="1">9,279,405,16</quad4>
			<quad4 id="2">279,280,406,405</quad4>
			<quad4 id="3">280,281,407,406</quad4>
			<quad4 id="4">281,282,408,407</quad4>
			<quad4 id="5">282,283,409,408</quad4>
			<quad4 id="6">283,284,410,409</quad4>
			<quad4 id="7">284,285,411,410</quad4>
			<quad4 id="8">285,286,412,411</quad4>
			<quad4 id="9">286,287,413,412</quad4>
			<quad4 id="10">287,288,414,413</quad4>
			<quad4 id="11">288,289,415,414</quad4>
			<quad4 id="12">289,290,416,415</quad4>
			<quad4 id="13">290,291,417,416</quad4>
			<quad4 id="14">291,292,418,417</quad4>
			<quad4 id="15">292,293,419,418</quad4>
			<quad4 id="16">293,294,420,419</quad4>
			<quad4 id="17">294,295,421,420</quad4>
			<quad4 id="18">295,296,422,421</quad4>
			<quad4 id="19">296,10,17,422</quad4>
		</Surface>
		<Surface name="PrescribedDisplacement3">
			<quad4 id="1">1,21,315,11</quad4>
			<quad4 id="2">21,22,316,315</quad4>
			<quad4 id="3">22,23,317,316</quad4>
			<quad4 id="4">23,24,318,317</quad4>
			<quad4 id="5">24,25,319,318</quad4>
			<quad4 id="6">25,26,320,319</quad4>
			<quad4 id="7">26,27,321,320</quad4>
			<quad4 id="8">27,28,322,321</quad4>
			<quad4 id="9">28,29,323,322</quad4>
			<quad4 id="10">29,30,324,323</quad4>
			<quad4 id="11">30,31,325,324</quad4>
			<quad4 id="12">31,32,326,325</quad4>
			<quad4 id="13">32,33,327,326</quad4>
			<quad4 id="14">33,34,328,327</quad4>
			<quad4 id="15">34,35,329,328</quad4>
			<quad4 id="16">35,36,330,329</quad4>
			<quad4 id="17">36,37,331,330</quad4>
			<quad4 id="18">37,38,332,331</quad4>
			<quad4 id="19">38,2,12,332</quad4>
		</Surface>
		<Surface name="ZeroDisplacement4">
			<quad4 id="1">92,1,11,386</quad4>
			<quad4 id="2">91,92,386,385</quad4>
			<quad4 id="3">90,91,385,384</quad4>
			<quad4 id="4">89,90,384,383</quad4>
			<quad4 id="5">88,89,383,382</quad4>
			<quad4 id="6">87,88,382,381</quad4>
			<quad4 id="7">86,87,381,380</quad4>
			<quad4 id="8">85,86,380,379</quad4>
			<quad4 id="9">84,85,379,378</quad4>
			<quad4 id="10">83,84,378,377</quad4>
			<quad4 id="11">82,83,377,376</quad4>
			<quad4 id="12">81,82,376,375</quad4>
			<quad4 id="13">80,81,375,374</quad4>
			<quad4 id="14">79,80,374,373</quad4>
			<quad4 id="15">78,79,373,372</quad4>
			<quad4 id="16">77,78,372,371</quad4>
			<quad4 id="17">76,77,371,370</quad4>
			<quad4 id="18">75,76,370,369</quad4>
			<quad4 id="19">4,75,369,14</quad4>
			<quad4 id="20">176,4,14,542</quad4>
<!-- ... 33 like lines cut -->
		</Surface>
		<Surface name="ZeroDisplacement5">
			<quad4 id="1">314,8,18,440</quad4>
			<quad4 id="2">313,314,440,439</quad4>
			<quad4 id="3">312,313,439,438</quad4>
			<quad4 id="4">311,312,438,437</quad4>
			<quad4 id="5">310,311,437,436</quad4>
			<quad4 id="6">309,310,436,435</quad4>
			<quad4 id="7">308,309,435,434</quad4>
			<quad4 id="8">307,308,434,433</quad4>
			<quad4 id="9">306,307,433,432</quad4>
			<quad4 id="10">305,306,432,431</quad4>
			<quad4 id="11">304,305,431,430</quad4>
			<quad4 id="12">303,304,430,429</quad4>
			<quad4 id="13">302,303,429,428</quad4>
			<quad4 id="14">301,302,428,427</quad4>
			<quad4 id="15">300,301,427,426</quad4>
			<quad4 id="16">299,300,426,425</quad4>
			<quad4 id="17">298,299,425,424</quad4>
			<quad4 id="18">297,298,424,423</quad4>
			<quad4 id="19">10,297,423,17</quad4>
			<quad4 id="20">260,6,20,608</quad4>
<!-- ... 33 like lines cut -->
		</Surface>
		<Surface name="ZeroDisplacement6">
			<quad4 id="1">1,21,315,11</quad4>
			<quad4 id="2">21,22,316,315</quad4>
			<quad4 id="3">22,23,317,316</quad4>
			<quad4 id="4">23,24,318,317</quad4>
			<quad4 id="5">24,25,319,318</quad4>
			<quad4 id="6">25,26,320,319</quad4>
			<quad4 id="7">26,27,321,320</quad4>
			<quad4 id="8">27,28,322,321</quad4>
			<quad4 id="9">28,29,323,322</quad4>
			<quad4 id="10">29,30,324,323</quad4>
			<quad4 id="11">30,31,325,324</quad4>
			<quad4 id="12">31,32,326,325</quad4>
			<quad4 id="13">32,33,327,326</quad4>
			<quad4 id="14">33,34,328,327</quad4>
			<quad4 id="15">34,35,329,328</quad4>
			<quad4 id="16">35,36,330,329</quad4>
			<quad4 id="17">36,37,331,330</quad4>
			<quad4 id="18">37,38,332,331</quad4>
			<quad4 id="19">38,2,12,332</quad4>
		</Surface>
		<Surface name="ZeroDisplacement7">
			<quad4 id="1">9,279,405,16</quad4>
			<quad4 id="2">279,280,406,405</quad4>
			<quad4 id="3">280,281,407,406</quad4>
			<quad4 id="4">281,282,408,407</quad4>
			<quad4 id="5">282,283,409,408</quad4>
			<quad4 id="6">283,284,410,409</quad4>
			<quad4 id="7">284,285,411,410</quad4>
			<quad4 id="8">285,286,412,411</quad4>
			<quad4 id="9">286,287,413,412</quad4>
			<quad4 id="10">287,288,414,413</quad4>
			<quad4 id="11">288,289,415,414</quad4>
			<quad4 id="12">289,290,416,415</quad4>
			<quad4 id="13">290,291,417,416</quad4>
			<quad4 id="14">291,292,418,417</quad4>
			<quad4 id="15">292,293,419,418</quad4>
			<quad4 id="16">293,294,420,419</quad4>
			<quad4 id="17">294,295,421,420</quad4>
			<quad4 id="18">295,296,422,421</quad4>
			<quad4 id="19">296,10,17,422</quad4>
		</Surface>
	</Mesh>
	<MeshDomains>
		<SolidDomain name="Part1" mat="Material1"/>
		<SolidDomain name="Part2" mat="Material1"/>
		<SolidDomain name="Part3" mat="Material1"/>
		<SolidDomain name="Part4" mat="Material1"/>
	</MeshDomains>
	<Boundary>
		<bc name="ZeroDisplacement1" node_set="@surface:ZeroDisplacement1" type="zero displacement">
			<x_dof>0</x_dof>
			<y_dof>0</y_dof>
			<z_dof>1</z_dof>
		</bc>
		<bc name="ZeroDisplacement4" node_set="@surface:ZeroDisplacement4" type="zero displacement">
			<x_dof>1</x_dof>
			<y_dof>0</y_dof>
			<z_dof>0</z_dof>
		</bc>
		<bc name="ZeroDisplacement5" node_set="@surface:ZeroDisplacement5" type="zero displacement">
			<x_dof>0</x_dof>
			<y_dof>1</y_dof>
			<z_dof>0</z_dof>
		</bc>
		<bc name="ZeroDisplacement6" node_set="@surface:ZeroDisplacement6" type="zero displacement">
			<x_dof>1</x_dof>
			<y_dof>0</y_dof>
			<z_dof>0</z_dof>
		</bc>
		<bc name="ZeroDisplacement7" node_set="@surface:ZeroDisplacement7" type="zero displacement">
			<x_dof>0</x_dof>
			<y_dof>1</y_dof>
			<z_dof>0</z_dof>
		</bc>
	</Boundary>
	<Step>
		<step id="1" name="Step1">
			<Control>
				<analysis>STATIC</analysis>
				<time_steps>20</time_steps>
				<step_size>0.05</step_size>
				<plot_zero_state>0</plot_zero_state>
				<plot_range>0,-1</plot_range>
				<plot_level>PLOT_MAJOR_ITRS</plot_level>
				<output_level>OUTPUT_MAJOR_ITRS</output_level>
				<plot_stride>1</plot_stride>
				<output_stride>1</output_stride>
				<adaptor_re_solve>1</adaptor_re_solve>
				<time_stepper type="default">
					<max_retries>5</max_retries>
					<opt_iter>11</opt_iter>
					<dtmin>0.05</dtmin>
					<dtmax>0.05</dtmax>
					<aggressiveness>0</aggressiveness>
					<cutback>0.5</cutback>
					<dtforce>0</dtforce>
				</time_stepper>
				<solver type="solid">
					<symmetric_stiffness>preferred</symmetric_stiffness>
					<equation_scheme>staggered</equation_scheme>
					<equation_order>default</equation_order>
					<optimize_bw>0</optimize_bw>
					<lstol>0.9</lstol>
					<lsmin>0.01</lsmin>
					<lsiter>5</lsiter>
					<ls_check_jacobians>0</ls_check_jacobians>
					<max_refs>15</max_refs>
					<check_zero_diagonal>0</check_zero_diagonal>
					<zero_diagonal_tol>0</zero_diagonal_tol>
					<force_partition>0</force_partition>
					<reform_each_time_step>1</reform_each_time_step>
					<reform_augment>0</reform_augment>
					<diverge_reform>1</diverge_reform>
					<min_residual>1e-20</min_residual>
					<max_residual>0</max_residual>
					<dtol>0.001</dtol>
					<etol>0.01</etol>
					<rtol>0</rtol>
					<rhoi>-2</rhoi>
					<alpha>1</alpha>
					<beta>0.25</beta>
					<gamma>0.5</gamma>
					<logSolve>0</logSolve>
					<arc_length>0</arc_length>
					<arc_length_scale>0</arc_length_scale>
					<qn_method type="BFGS">
						<max_ups>10</max_ups>
						<max_buffer_size>0</max_buffer_size>
						<cycle_buffer>1</cycle_buffer>
						<cmax>100000</cmax>
					</qn_method>
				</solver>
			</Control>
			<Boundary>
				<bc name="PrescribedDisplacement2" node_set="@surface:PrescribedDisplacement2" type="prescribed displacement">
					<dof>x</dof>
					<value lc="1">20</value>
					<relative>0</relative>
				</bc>
				<bc name="PrescribedDisplacement3" node_set="@surface:PrescribedDisplacement3" type="prescribed displacement">
					<dof>y</dof>
					<value lc="2">-20</value>
					<relative>0</relative>
				</bc>
			</Boundary>
		</step>
	</Step>
	<LoadData>
		<load_controller id="1" name="LC1" type="loadcurve">
			<interpolate>LINEAR</interpolate>
			<extend>CONSTANT</extend>
			<points>
				<pt>0,0</pt>
				<pt>1,1</pt>
			</points>
		</load_controller>
		<load_controller id="2" name="LC2" type="loadcurve">
			<interpolate>LINEAR</interpolate>
			<extend>CONSTANT</extend>
			<points>
				<pt>0,0</pt>
				<pt>1,1</pt>
			</points>
		</load_controller>
	</LoadData>
	<Output>
		<plotfile type="febio">
			<var type="displacement"/>
			<var type="stress"/>
			<var type="relative volume"/>
			<var type="surface reaction force" surface="PrescribedDisplacement2"/>
			<var type="surface reaction force" surface="PrescribedDisplacement3"/>
		</plotfile>
	</Output>
</febio_spec>
